Data/networks/opendssNetworks/network_4/Feeder_5/Loads - Copy.txt
New Load.LOAD1 Phases=1 Bus1=94.1 kV=0.23 kW=1 PF=0.95
New Load.LOAD2 Phases=1 Bus1=118.2 kV=0.23 kW=1 PF=0.95
New Load.LOAD3 Phases=1 Bus1=125.3 kV=0.23 kW=1 PF=0.95
New Load.LOAD4 Phases=1 Bus1=147.1 kV=0.23 kW=1 PF=0.95
New Load.LOAD5 Phases=1 Bus1=162.2 kV=0.23 kW=1 PF=0.95
New Load.LOAD6 Phases=1 Bus1=175.3 kV=0.23 kW=1 PF=0.95
New Load.LOAD7 Phases=1 Bus1=183.1 kV=0.23 kW=1 PF=0.95
New Load.LOAD8 Phases=1 Bus1=240.2 kV=0.23 kW=1 PF=0.95
New Load.LOAD9 Phases=1 Bus1=255.2 kV=0.23 kW=1 PF=0.95
New Load.LOAD10 Phases=1 Bus1=271.3 kV=0.23 kW=1 PF=0.95
New Load.LOAD11 Phases=1 Bus1=278.1 kV=0.23 kW=1 PF=0.95
New Load.LOAD12 Phases=1 Bus1=329.2 kV=0.23 kW=1 PF=0.95
New Load.LOAD13 Phases=1 Bus1=342.2 kV=0.23 kW=1 PF=0.95
New Load.LOAD14 Phases=1 Bus1=364.2 kV=0.23 kW=1 PF=0.95
New Load.LOAD15 Phases=1 Bus1=376.3 kV=0.23 kW=1 PF=0.95
New Load.LOAD16 Phases=1 Bus1=394.1 kV=0.23 kW=1 PF=0.95
New Load.LOAD17 Phases=1 Bus1=396.2 kV=0.23 kW=1 PF=0.95
New Load.LOAD18 Phases=1 Bus1=399.3 kV=0.23 kW=1 PF=0.95
New Load.LOAD19 Phases=1 Bus1=404.3 kV=0.23 kW=1 PF=0.95
New Load.LOAD20 Phases=1 Bus1=406.1 kV=0.23 kW=1 PF=0.95
